1658255452.308375s 1 https://api.dandiarchive.org/api/zarr/7e2d20bb-1cdd-424a-b4d4-a59d79ad6265.zarr/0/0/0/5/13/190
1658255452.303621s 1 https://dandiarchive.s3.amazonaws.com/zarr/7e2d20bb-1cdd-424a-b4d4-a59d79ad6265/0/0/0/5/13/190?versionId=MT3DukKkAmyUBsPuZ4jAhvEqEU2QdDCv
